data_image0
_chemical_formula_structural       Zn12O48C24O48C12Zn12C276H168Zn4O8Zn4
_chemical_formula_sum              "Zn32 O104 C312 H168"
_cell_length_a       32.5
_cell_length_b       32.5
_cell_length_c       32.5
_cell_angle_alpha    90
_cell_angle_beta     90
_cell_angle_gamma    90

_space_group_name_H-M_alt    "P 1"
_space_group_IT_number       1

loop_
  _space_group_symop_operation_xyz
  'x, y, z'

loop_
  _atom_site_type_symbol
  _atom_site_label
  _atom_site_symmetry_multiplicity
  _atom_site_fract_x
  _atom_site_fract_y
  _atom_site_fract_z
  _atom_site_occupancy
  Zn  Zn1       1.0  0.19958  0.19207  0.26375  1.0000
  Zn  Zn2       1.0  0.80042  0.80793  0.26375  1.0000
  Zn  Zn3       1.0  0.80042  0.19207  0.73625  1.0000
  Zn  Zn4       1.0  0.19958  0.80793  0.73625  1.0000
  Zn  Zn5       1.0  0.26375  0.19958  0.19207  1.0000
  Zn  Zn6       1.0  0.26375  0.80042  0.80793  1.0000
  Zn  Zn7       1.0  0.73625  0.80042  0.19207  1.0000
  Zn  Zn8       1.0  0.73625  0.19958  0.80793  1.0000
  Zn  Zn9       1.0  0.19207  0.26375  0.19958  1.0000
  Zn  Zn10      1.0  0.80793  0.26375  0.80042  1.0000
  Zn  Zn11      1.0  0.19207  0.73625  0.80042  1.0000
  Zn  Zn12      1.0  0.80793  0.73625  0.19958  1.0000
  O   O1        1.0  0.21217  0.13746  0.25301  1.0000
  O   O2        1.0  0.78783  0.86254  0.25301  1.0000
  O   O3        1.0  0.78783  0.13746  0.74699  1.0000
  O   O4        1.0  0.21217  0.86254  0.74699  1.0000
  O   O5        1.0  0.25301  0.21217  0.13746  1.0000
  O   O6        1.0  0.25301  0.78783  0.86254  1.0000
  O   O7        1.0  0.74699  0.78783  0.13746  1.0000
  O   O8        1.0  0.74699  0.21217  0.86254  1.0000
  O   O9        1.0  0.13746  0.25301  0.21217  1.0000
  O   O10       1.0  0.86254  0.25301  0.78783  1.0000
  O   O11       1.0  0.13746  0.74699  0.78783  1.0000
  O   O12       1.0  0.86254  0.74699  0.21217  1.0000
  O   O13       1.0  0.20039  0.32047  0.20700  1.0000
  O   O14       1.0  0.79961  0.67953  0.20700  1.0000
  O   O15       1.0  0.79961  0.32047  0.79300  1.0000
  O   O16       1.0  0.20039  0.67953  0.79300  1.0000
  O   O17       1.0  0.20700  0.20039  0.32047  1.0000
  O   O18       1.0  0.20700  0.79961  0.67953  1.0000
  O   O19       1.0  0.79300  0.79961  0.32047  1.0000
  O   O20       1.0  0.79300  0.20039  0.67953  1.0000
  O   O21       1.0  0.32047  0.20700  0.20039  1.0000
  O   O22       1.0  0.67953  0.20700  0.79961  1.0000
  O   O23       1.0  0.32047  0.79300  0.79961  1.0000
  O   O24       1.0  0.67953  0.79300  0.20039  1.0000
  O   O25       1.0  0.25206  0.24871  0.31211  1.0000
  O   O26       1.0  0.74794  0.75129  0.31211  1.0000
  O   O27       1.0  0.74794  0.24871  0.68789  1.0000
  O   O28       1.0  0.25206  0.75129  0.68789  1.0000
  O   O29       1.0  0.31211  0.25206  0.24871  1.0000
  O   O30       1.0  0.31211  0.74794  0.75129  1.0000
  O   O31       1.0  0.68789  0.74794  0.24871  1.0000
  O   O32       1.0  0.68789  0.25206  0.75129  1.0000
  O   O33       1.0  0.24871  0.31211  0.25206  1.0000
  O   O34       1.0  0.75129  0.31211  0.74794  1.0000
  O   O35       1.0  0.24871  0.68789  0.74794  1.0000
  O   O36       1.0  0.75129  0.68789  0.25206  1.0000
  O   O37       1.0  0.14231  0.19589  0.25535  1.0000
  O   O38       1.0  0.85769  0.80411  0.25535  1.0000
  O   O39       1.0  0.85769  0.19589  0.74465  1.0000
  O   O40       1.0  0.14231  0.80411  0.74465  1.0000
  O   O41       1.0  0.25535  0.14231  0.19589  1.0000
  O   O42       1.0  0.25535  0.85769  0.80411  1.0000
  O   O43       1.0  0.74465  0.85769  0.19589  1.0000
  O   O44       1.0  0.74465  0.14231  0.80411  1.0000
  O   O45       1.0  0.19589  0.25535  0.14231  1.0000
  O   O46       1.0  0.80411  0.25535  0.85769  1.0000
  O   O47       1.0  0.19589  0.74465  0.85769  1.0000
  O   O48       1.0  0.80411  0.74465  0.14231  1.0000
  C   C1        1.0  0.22668  0.33687  0.23114  1.0000
  C   C2        1.0  0.77332  0.66313  0.23114  1.0000
  C   C3        1.0  0.77332  0.33687  0.76886  1.0000
  C   C4        1.0  0.22668  0.66313  0.76886  1.0000
  C   C5        1.0  0.23114  0.22668  0.33687  1.0000
  C   C6        1.0  0.23114  0.77332  0.66313  1.0000
  C   C7        1.0  0.76886  0.77332  0.33687  1.0000
  C   C8        1.0  0.76886  0.22668  0.66313  1.0000
  C   C9        1.0  0.33687  0.23114  0.22668  1.0000
  C   C10       1.0  0.66313  0.23114  0.77332  1.0000
  C   C11       1.0  0.33687  0.76886  0.77332  1.0000
  C   C12       1.0  0.66313  0.76886  0.22668  1.0000
  C   C13       1.0  0.23333  0.11950  0.22506  1.0000
  C   C14       1.0  0.76667  0.88050  0.22506  1.0000
  C   C15       1.0  0.76667  0.11950  0.77494  1.0000
  C   C16       1.0  0.23333  0.88050  0.77494  1.0000
  C   C17       1.0  0.22506  0.23333  0.11950  1.0000
  C   C18       1.0  0.22506  0.76667  0.88050  1.0000
  C   C19       1.0  0.77494  0.76667  0.11950  1.0000
  C   C20       1.0  0.77494  0.23333  0.88050  1.0000
  C   C21       1.0  0.11950  0.22506  0.23333  1.0000
  C   C22       1.0  0.88050  0.22506  0.76667  1.0000
  C   C23       1.0  0.11950  0.77494  0.76667  1.0000
  C   C24       1.0  0.88050  0.77494  0.23333  1.0000
  O   O49       1.0  0.21499  0.84953  0.21602  1.0000
  O   O50       1.0  0.78501  0.15047  0.21602  1.0000
  O   O51       1.0  0.78501  0.84953  0.78398  1.0000
  O   O52       1.0  0.21499  0.15047  0.78398  1.0000
  O   O53       1.0  0.21602  0.21499  0.84953  1.0000
  O   O54       1.0  0.21602  0.78501  0.15047  1.0000
  O   O55       1.0  0.78398  0.78501  0.84953  1.0000
  O   O56       1.0  0.78398  0.21499  0.15047  1.0000
  O   O57       1.0  0.84953  0.21602  0.21499  1.0000
  O   O58       1.0  0.15047  0.21602  0.78501  1.0000
  O   O59       1.0  0.84953  0.78398  0.78501  1.0000
  O   O60       1.0  0.15047  0.78398  0.21499  1.0000
  O   O61       1.0  0.26364  0.73110  0.15005  1.0000
  O   O62       1.0  0.73636  0.26890  0.15005  1.0000
  O   O63       1.0  0.73636  0.73110  0.84995  1.0000
  O   O64       1.0  0.26364  0.26890  0.84995  1.0000
  O   O65       1.0  0.15005  0.26364  0.73110  1.0000
  O   O66       1.0  0.15005  0.73636  0.26890  1.0000
  O   O67       1.0  0.84995  0.73636  0.73110  1.0000
  O   O68       1.0  0.84995  0.26364  0.26890  1.0000
  O   O69       1.0  0.73110  0.15005  0.26364  1.0000
  O   O70       1.0  0.26890  0.15005  0.73636  1.0000
  O   O71       1.0  0.73110  0.84995  0.73636  1.0000
  O   O72       1.0  0.26890  0.84995  0.26364  1.0000
  O   O73       1.0  0.32365  0.77886  0.25645  1.0000
  O   O74       1.0  0.67635  0.22114  0.25645  1.0000
  O   O75       1.0  0.67635  0.77886  0.74355  1.0000
  O   O76       1.0  0.32365  0.22114  0.74355  1.0000
  O   O77       1.0  0.25645  0.32365  0.77886  1.0000
  O   O78       1.0  0.25645  0.67635  0.22114  1.0000
  O   O79       1.0  0.74355  0.67635  0.77886  1.0000
  O   O80       1.0  0.74355  0.32365  0.22114  1.0000
  O   O81       1.0  0.77886  0.25645  0.32365  1.0000
  O   O82       1.0  0.22114  0.25645  0.67635  1.0000
  O   O83       1.0  0.77886  0.74355  0.67635  1.0000
  O   O84       1.0  0.22114  0.74355  0.32365  1.0000
  O   O85       1.0  0.32935  0.72755  0.21453  1.0000
  O   O86       1.0  0.67065  0.27245  0.21453  1.0000
  O   O87       1.0  0.67065  0.72755  0.78547  1.0000
  O   O88       1.0  0.32935  0.27245  0.78547  1.0000
  O   O89       1.0  0.21453  0.32935  0.72755  1.0000
  O   O90       1.0  0.21453  0.67065  0.27245  1.0000
  O   O91       1.0  0.78547  0.67065  0.72755  1.0000
  O   O92       1.0  0.78547  0.32935  0.27245  1.0000
  O   O93       1.0  0.72755  0.21453  0.32935  1.0000
  O   O94       1.0  0.27245  0.21453  0.67065  1.0000
  O   O95       1.0  0.72755  0.78547  0.67065  1.0000
  O   O96       1.0  0.27245  0.78547  0.32935  1.0000
  C   C25       1.0  0.23943  0.86991  0.23936  1.0000
  C   C26       1.0  0.76057  0.13009  0.23936  1.0000
  C   C27       1.0  0.76057  0.86991  0.76064  1.0000
  C   C28       1.0  0.23943  0.13009  0.76064  1.0000
  C   C29       1.0  0.23936  0.23943  0.86991  1.0000
  C   C30       1.0  0.23936  0.76057  0.13009  1.0000
  C   C31       1.0  0.76064  0.76057  0.86991  1.0000
  C   C32       1.0  0.76064  0.23943  0.13009  1.0000
  C   C33       1.0  0.86991  0.23936  0.23943  1.0000
  C   C34       1.0  0.13009  0.23936  0.76057  1.0000
  C   C35       1.0  0.86991  0.76064  0.76057  1.0000
  C   C36       1.0  0.13009  0.76064  0.23943  1.0000
  Zn  Zn13      1.0  0.27232  0.72432  0.20677  1.0000
  Zn  Zn14      1.0  0.72768  0.27568  0.20677  1.0000
  Zn  Zn15      1.0  0.72768  0.72432  0.79323  1.0000
  Zn  Zn16      1.0  0.27232  0.27568  0.79323  1.0000
  Zn  Zn17      1.0  0.20677  0.27232  0.72432  1.0000
  Zn  Zn18      1.0  0.20677  0.72768  0.27568  1.0000
  Zn  Zn19      1.0  0.79323  0.72768  0.72432  1.0000
  Zn  Zn20      1.0  0.79323  0.27232  0.27568  1.0000
  Zn  Zn21      1.0  0.72432  0.20677  0.27232  1.0000
  Zn  Zn22      1.0  0.27568  0.20677  0.72768  1.0000
  Zn  Zn23      1.0  0.72432  0.79323  0.72768  1.0000
  Zn  Zn24      1.0  0.27568  0.79323  0.27232  1.0000
  C   C37       1.0  0.34719  0.75449  0.23677  1.0000
  C   C38       1.0  0.65281  0.24551  0.23677  1.0000
  C   C39       1.0  0.65281  0.75449  0.76323  1.0000
  C   C40       1.0  0.34719  0.24551  0.76323  1.0000
  C   C41       1.0  0.23677  0.34719  0.75449  1.0000
  C   C42       1.0  0.23677  0.65281  0.24551  1.0000
  C   C43       1.0  0.76323  0.65281  0.75449  1.0000
  C   C44       1.0  0.76323  0.34719  0.24551  1.0000
  C   C45       1.0  0.75449  0.23677  0.34719  1.0000
  C   C46       1.0  0.24551  0.23677  0.65281  1.0000
  C   C47       1.0  0.75449  0.76323  0.65281  1.0000
  C   C48       1.0  0.24551  0.76323  0.34719  1.0000
  C   C49       1.0  0.39352  0.24333  0.76112  1.0000
  C   C50       1.0  0.60648  0.75667  0.76112  1.0000
  C   C51       1.0  0.60648  0.24333  0.23888  1.0000
  C   C52       1.0  0.39352  0.75667  0.23888  1.0000
  C   C53       1.0  0.76112  0.39352  0.24333  1.0000
  C   C54       1.0  0.76112  0.60648  0.75667  1.0000
  C   C55       1.0  0.23888  0.60648  0.24333  1.0000
  C   C56       1.0  0.23888  0.39352  0.75667  1.0000
  C   C57       1.0  0.24333  0.76112  0.39352  1.0000
  C   C58       1.0  0.75667  0.76112  0.60648  1.0000
  C   C59       1.0  0.24333  0.23888  0.60648  1.0000
  C   C60       1.0  0.75667  0.23888  0.39352  1.0000
  C   C61       1.0  0.41762  0.27845  0.76917  1.0000
  C   C62       1.0  0.58238  0.72155  0.76917  1.0000
  C   C63       1.0  0.58238  0.27845  0.23083  1.0000
  C   C64       1.0  0.41762  0.72155  0.23083  1.0000
  C   C65       1.0  0.76917  0.41762  0.27845  1.0000
  C   C66       1.0  0.76917  0.58238  0.72155  1.0000
  C   C67       1.0  0.23083  0.58238  0.27845  1.0000
  C   C68       1.0  0.23083  0.41762  0.72155  1.0000
  C   C69       1.0  0.27845  0.76917  0.41762  1.0000
  C   C70       1.0  0.72155  0.76917  0.58238  1.0000
  C   C71       1.0  0.27845  0.23083  0.58238  1.0000
  C   C72       1.0  0.72155  0.23083  0.41762  1.0000
  C   C73       1.0  0.46105  0.27669  0.76911  1.0000
  C   C74       1.0  0.53895  0.72331  0.76911  1.0000
  C   C75       1.0  0.53895  0.27669  0.23089  1.0000
  C   C76       1.0  0.46105  0.72331  0.23089  1.0000
  C   C77       1.0  0.76911  0.46105  0.27669  1.0000
  C   C78       1.0  0.76911  0.53895  0.72331  1.0000
  C   C79       1.0  0.23089  0.53895  0.27669  1.0000
  C   C80       1.0  0.23089  0.46105  0.72331  1.0000
  C   C81       1.0  0.27669  0.76911  0.46105  1.0000
  C   C82       1.0  0.72331  0.76911  0.53895  1.0000
  C   C83       1.0  0.27669  0.23089  0.53895  1.0000
  C   C84       1.0  0.72331  0.23089  0.46105  1.0000
  C   C85       1.0  0.48208  0.23954  0.76172  1.0000
  C   C86       1.0  0.51792  0.76046  0.76172  1.0000
  C   C87       1.0  0.51792  0.23954  0.23828  1.0000
  C   C88       1.0  0.48208  0.76046  0.23828  1.0000
  C   C89       1.0  0.76172  0.48208  0.23954  1.0000
  C   C90       1.0  0.76172  0.51792  0.76046  1.0000
  C   C91       1.0  0.23828  0.51792  0.23954  1.0000
  C   C92       1.0  0.23828  0.48208  0.76046  1.0000
  C   C93       1.0  0.23954  0.76172  0.48208  1.0000
  C   C94       1.0  0.76046  0.76172  0.51792  1.0000
  C   C95       1.0  0.23954  0.23828  0.51792  1.0000
  C   C96       1.0  0.76046  0.23828  0.48208  1.0000
  C   C97       1.0  0.45793  0.20431  0.75379  1.0000
  C   C98       1.0  0.54207  0.79569  0.75379  1.0000
  C   C99       1.0  0.54207  0.20431  0.24621  1.0000
  C   C100      1.0  0.45793  0.79569  0.24621  1.0000
  C   C101      1.0  0.75379  0.45793  0.20431  1.0000
  C   C102      1.0  0.75379  0.54207  0.79569  1.0000
  C   C103      1.0  0.24621  0.54207  0.20431  1.0000
  C   C104      1.0  0.24621  0.45793  0.79569  1.0000
  C   C105      1.0  0.20431  0.75379  0.45793  1.0000
  C   C106      1.0  0.79569  0.75379  0.54207  1.0000
  C   C107      1.0  0.20431  0.24621  0.54207  1.0000
  C   C108      1.0  0.79569  0.24621  0.45793  1.0000
  C   C109      1.0  0.41441  0.20622  0.75319  1.0000
  C   C110      1.0  0.58559  0.79378  0.75319  1.0000
  C   C111      1.0  0.58559  0.20622  0.24681  1.0000
  C   C112      1.0  0.41441  0.79378  0.24681  1.0000
  C   C113      1.0  0.75319  0.41441  0.20622  1.0000
  C   C114      1.0  0.75319  0.58559  0.79378  1.0000
  C   C115      1.0  0.24681  0.58559  0.20622  1.0000
  C   C116      1.0  0.24681  0.41441  0.79378  1.0000
  C   C117      1.0  0.20622  0.75319  0.41441  1.0000
  C   C118      1.0  0.79378  0.75319  0.58559  1.0000
  C   C119      1.0  0.20622  0.24681  0.58559  1.0000
  C   C120      1.0  0.79378  0.24681  0.41441  1.0000
  C   C121      1.0  0.52858  0.23740  0.76343  1.0000
  C   C122      1.0  0.47142  0.76260  0.76343  1.0000
  C   C123      1.0  0.47142  0.23740  0.23657  1.0000
  C   C124      1.0  0.52858  0.76260  0.23657  1.0000
  C   C125      1.0  0.76343  0.52858  0.23740  1.0000
  C   C126      1.0  0.76343  0.47142  0.76260  1.0000
  C   C127      1.0  0.23657  0.47142  0.23740  1.0000
  C   C128      1.0  0.23657  0.52858  0.76260  1.0000
  C   C129      1.0  0.23740  0.76343  0.52858  1.0000
  C   C130      1.0  0.76260  0.76343  0.47142  1.0000
  C   C131      1.0  0.23740  0.23657  0.47142  1.0000
  C   C132      1.0  0.76260  0.23657  0.52858  1.0000
  C   C133      1.0  0.55348  0.27115  0.75208  1.0000
  C   C134      1.0  0.44652  0.72885  0.75208  1.0000
  C   C135      1.0  0.44652  0.27115  0.24792  1.0000
  C   C136      1.0  0.55348  0.72885  0.24792  1.0000
  C   C137      1.0  0.75208  0.55348  0.27115  1.0000
  C   C138      1.0  0.75208  0.44652  0.72885  1.0000
  C   C139      1.0  0.24792  0.44652  0.27115  1.0000
  C   C140      1.0  0.24792  0.55348  0.72885  1.0000
  C   C141      1.0  0.27115  0.75208  0.55348  1.0000
  C   C142      1.0  0.72885  0.75208  0.44652  1.0000
  C   C143      1.0  0.27115  0.24792  0.44652  1.0000
  C   C144      1.0  0.72885  0.24792  0.55348  1.0000
  C   C145      1.0  0.59695  0.26916  0.75445  1.0000
  C   C146      1.0  0.40305  0.73084  0.75445  1.0000
  C   C147      1.0  0.40305  0.26916  0.24555  1.0000
  C   C148      1.0  0.59695  0.73084  0.24555  1.0000
  C   C149      1.0  0.75445  0.59695  0.26916  1.0000
  C   C150      1.0  0.75445  0.40305  0.73084  1.0000
  C   C151      1.0  0.24555  0.40305  0.26916  1.0000
  C   C152      1.0  0.24555  0.59695  0.73084  1.0000
  C   C153      1.0  0.26916  0.75445  0.59695  1.0000
  C   C154      1.0  0.73084  0.75445  0.40305  1.0000
  C   C155      1.0  0.26916  0.24555  0.40305  1.0000
  C   C156      1.0  0.73084  0.24555  0.59695  1.0000
  C   C157      1.0  0.61697  0.23356  0.76892  1.0000
  C   C158      1.0  0.38303  0.76644  0.76892  1.0000
  C   C159      1.0  0.38303  0.23356  0.23108  1.0000
  C   C160      1.0  0.61697  0.76644  0.23108  1.0000
  C   C161      1.0  0.76892  0.61697  0.23356  1.0000
  C   C162      1.0  0.76892  0.38303  0.76644  1.0000
  C   C163      1.0  0.23108  0.38303  0.23356  1.0000
  C   C164      1.0  0.23108  0.61697  0.76644  1.0000
  C   C165      1.0  0.23356  0.76892  0.61697  1.0000
  C   C166      1.0  0.76644  0.76892  0.38303  1.0000
  C   C167      1.0  0.23356  0.23108  0.38303  1.0000
  C   C168      1.0  0.76644  0.23108  0.61697  1.0000
  C   C169      1.0  0.59209  0.19998  0.78041  1.0000
  C   C170      1.0  0.40791  0.80002  0.78041  1.0000
  C   C171      1.0  0.40791  0.19998  0.21959  1.0000
  C   C172      1.0  0.59209  0.80002  0.21959  1.0000
  C   C173      1.0  0.78041  0.59209  0.19998  1.0000
  C   C174      1.0  0.78041  0.40791  0.80002  1.0000
  C   C175      1.0  0.21959  0.40791  0.19998  1.0000
  C   C176      1.0  0.21959  0.59209  0.80002  1.0000
  C   C177      1.0  0.19998  0.78041  0.59209  1.0000
  C   C178      1.0  0.80002  0.78041  0.40791  1.0000
  C   C179      1.0  0.19998  0.21959  0.40791  1.0000
  C   C180      1.0  0.80002  0.21959  0.59209  1.0000
  C   C181      1.0  0.54879  0.20172  0.77742  1.0000
  C   C182      1.0  0.45121  0.79828  0.77742  1.0000
  C   C183      1.0  0.45121  0.20172  0.22258  1.0000
  C   C184      1.0  0.54879  0.79828  0.22258  1.0000
  C   C185      1.0  0.77742  0.54879  0.20172  1.0000
  C   C186      1.0  0.77742  0.45121  0.79828  1.0000
  C   C187      1.0  0.22258  0.45121  0.20172  1.0000
  C   C188      1.0  0.22258  0.54879  0.79828  1.0000
  C   C189      1.0  0.20172  0.77742  0.54879  1.0000
  C   C190      1.0  0.79828  0.77742  0.45121  1.0000
  C   C191      1.0  0.20172  0.22258  0.45121  1.0000
  C   C192      1.0  0.79828  0.22258  0.54879  1.0000
  C   C193      1.0  0.92679  0.22176  0.76630  1.0000
  C   C194      1.0  0.07321  0.77824  0.76630  1.0000
  C   C195      1.0  0.07321  0.22176  0.23370  1.0000
  C   C196      1.0  0.92679  0.77824  0.23370  1.0000
  C   C197      1.0  0.76630  0.92679  0.22176  1.0000
  C   C198      1.0  0.76630  0.07321  0.77824  1.0000
  C   C199      1.0  0.23370  0.07321  0.22176  1.0000
  C   C200      1.0  0.23370  0.92679  0.77824  1.0000
  C   C201      1.0  0.22176  0.76630  0.92679  1.0000
  C   C202      1.0  0.77824  0.76630  0.07321  1.0000
  C   C203      1.0  0.22176  0.23370  0.07321  1.0000
  C   C204      1.0  0.77824  0.23370  0.92679  1.0000
  C   C205      1.0  0.95305  0.25645  0.76807  1.0000
  C   C206      1.0  0.04695  0.74355  0.76807  1.0000
  C   C207      1.0  0.04695  0.25645  0.23193  1.0000
  C   C208      1.0  0.95305  0.74355  0.23193  1.0000
  C   C209      1.0  0.76807  0.95305  0.25645  1.0000
  C   C210      1.0  0.76807  0.04695  0.74355  1.0000
  C   C211      1.0  0.23193  0.04695  0.25645  1.0000
  C   C212      1.0  0.23193  0.95305  0.74355  1.0000
  C   C213      1.0  0.25645  0.76807  0.95305  1.0000
  C   C214      1.0  0.74355  0.76807  0.04695  1.0000
  C   C215      1.0  0.25645  0.23193  0.04695  1.0000
  C   C216      1.0  0.74355  0.23193  0.95305  1.0000
  C   C217      1.0  0.99650  0.25187  0.76685  1.0000
  C   C218      1.0  0.00350  0.74813  0.76685  1.0000
  C   C219      1.0  0.00350  0.25187  0.23315  1.0000
  C   C220      1.0  0.99650  0.74813  0.23315  1.0000
  C   C221      1.0  0.76685  0.99650  0.25187  1.0000
  C   C222      1.0  0.76685  0.00350  0.74813  1.0000
  C   C223      1.0  0.23315  0.00350  0.25187  1.0000
  C   C224      1.0  0.23315  0.99650  0.74813  1.0000
  C   C225      1.0  0.25187  0.76685  0.99650  1.0000
  C   C226      1.0  0.74813  0.76685  0.00350  1.0000
  C   C227      1.0  0.25187  0.23315  0.00350  1.0000
  C   C228      1.0  0.74813  0.23315  0.99650  1.0000
  C   C229      1.0  0.01435  0.21223  0.76503  1.0000
  C   C230      1.0  0.98565  0.78777  0.76503  1.0000
  C   C231      1.0  0.98565  0.21223  0.23497  1.0000
  C   C232      1.0  0.01435  0.78777  0.23497  1.0000
  C   C233      1.0  0.76503  0.01435  0.21223  1.0000
  C   C234      1.0  0.76503  0.98565  0.78777  1.0000
  C   C235      1.0  0.23497  0.98565  0.21223  1.0000
  C   C236      1.0  0.23497  0.01435  0.78777  1.0000
  C   C237      1.0  0.21223  0.76503  0.01435  1.0000
  C   C238      1.0  0.78777  0.76503  0.98565  1.0000
  C   C239      1.0  0.21223  0.23497  0.98565  1.0000
  C   C240      1.0  0.78777  0.23497  0.01435  1.0000
  C   C241      1.0  0.98832  0.17791  0.76328  1.0000
  C   C242      1.0  0.01168  0.82209  0.76328  1.0000
  C   C243      1.0  0.01168  0.17791  0.23672  1.0000
  C   C244      1.0  0.98832  0.82209  0.23672  1.0000
  C   C245      1.0  0.76328  0.98832  0.17791  1.0000
  C   C246      1.0  0.76328  0.01168  0.82209  1.0000
  C   C247      1.0  0.23672  0.01168  0.17791  1.0000
  C   C248      1.0  0.23672  0.98832  0.82209  1.0000
  C   C249      1.0  0.17791  0.76328  0.98832  1.0000
  C   C250      1.0  0.82209  0.76328  0.01168  1.0000
  C   C251      1.0  0.17791  0.23672  0.01168  1.0000
  C   C252      1.0  0.82209  0.23672  0.98832  1.0000
  C   C253      1.0  0.94525  0.18269  0.76359  1.0000
  C   C254      1.0  0.05475  0.81731  0.76359  1.0000
  C   C255      1.0  0.05475  0.18269  0.23641  1.0000
  C   C256      1.0  0.94525  0.81731  0.23641  1.0000
  C   C257      1.0  0.76359  0.94525  0.18269  1.0000
  C   C258      1.0  0.76359  0.05475  0.81731  1.0000
  C   C259      1.0  0.23641  0.05475  0.18269  1.0000
  C   C260      1.0  0.23641  0.94525  0.81731  1.0000
  C   C261      1.0  0.18269  0.76359  0.94525  1.0000
  C   C262      1.0  0.81731  0.76359  0.05475  1.0000
  C   C263      1.0  0.18269  0.23641  0.05475  1.0000
  C   C264      1.0  0.81731  0.23641  0.94525  1.0000
  C   C265      1.0  0.02247  0.28628  0.76651  1.0000
  C   C266      1.0  0.97753  0.71372  0.76651  1.0000
  C   C267      1.0  0.97753  0.28628  0.23349  1.0000
  C   C268      1.0  0.02247  0.71372  0.23349  1.0000
  C   C269      1.0  0.76651  0.02247  0.28628  1.0000
  C   C270      1.0  0.76651  0.97753  0.71372  1.0000
  C   C271      1.0  0.23349  0.97753  0.28628  1.0000
  C   C272      1.0  0.23349  0.02247  0.71372  1.0000
  C   C273      1.0  0.28628  0.76651  0.02247  1.0000
  C   C274      1.0  0.71372  0.76651  0.97753  1.0000
  C   C275      1.0  0.28628  0.23349  0.97753  1.0000
  C   C276      1.0  0.71372  0.23349  0.02247  1.0000
  C   C277      1.0  0.06549  0.28158  0.76455  1.0000
  C   C278      1.0  0.93451  0.71842  0.76455  1.0000
  C   C279      1.0  0.93451  0.28158  0.23545  1.0000
  C   C280      1.0  0.06549  0.71842  0.23545  1.0000
  C   C281      1.0  0.76455  0.06549  0.28158  1.0000
  C   C282      1.0  0.76455  0.93451  0.71842  1.0000
  C   C283      1.0  0.23545  0.93451  0.28158  1.0000
  C   C284      1.0  0.23545  0.06549  0.71842  1.0000
  C   C285      1.0  0.28158  0.76455  0.06549  1.0000
  C   C286      1.0  0.71842  0.76455  0.93451  1.0000
  C   C287      1.0  0.28158  0.23545  0.93451  1.0000
  C   C288      1.0  0.71842  0.23545  0.06549  1.0000
  C   C289      1.0  0.08396  0.24245  0.76367  1.0000
  C   C290      1.0  0.91604  0.75755  0.76367  1.0000
  C   C291      1.0  0.91604  0.24245  0.23633  1.0000
  C   C292      1.0  0.08396  0.75755  0.23633  1.0000
  C   C293      1.0  0.76367  0.08396  0.24245  1.0000
  C   C294      1.0  0.76367  0.91604  0.75755  1.0000
  C   C295      1.0  0.23633  0.91604  0.24245  1.0000
  C   C296      1.0  0.23633  0.08396  0.75755  1.0000
  C   C297      1.0  0.24245  0.76367  0.08396  1.0000
  C   C298      1.0  0.75755  0.76367  0.91604  1.0000
  C   C299      1.0  0.24245  0.23633  0.91604  1.0000
  C   C300      1.0  0.75755  0.23633  0.08396  1.0000
  C   C301      1.0  0.05781  0.20765  0.76399  1.0000
  C   C302      1.0  0.94219  0.79235  0.76399  1.0000
  C   C303      1.0  0.94219  0.20765  0.23601  1.0000
  C   C304      1.0  0.05781  0.79235  0.23601  1.0000
  C   C305      1.0  0.76399  0.05781  0.20765  1.0000
  C   C306      1.0  0.76399  0.94219  0.79235  1.0000
  C   C307      1.0  0.23601  0.94219  0.20765  1.0000
  C   C308      1.0  0.23601  0.05781  0.79235  1.0000
  C   C309      1.0  0.20765  0.76399  0.05781  1.0000
  C   C310      1.0  0.79235  0.76399  0.94219  1.0000
  C   C311      1.0  0.20765  0.23601  0.94219  1.0000
  C   C312      1.0  0.79235  0.23601  0.05781  1.0000
  H   H1        1.0  0.40212  0.30918  0.77593  1.0000
  H   H2        1.0  0.59788  0.69082  0.77593  1.0000
  H   H3        1.0  0.59788  0.30918  0.22407  1.0000
  H   H4        1.0  0.40212  0.69082  0.22407  1.0000
  H   H5        1.0  0.77593  0.40212  0.30918  1.0000
  H   H6        1.0  0.77593  0.59788  0.69082  1.0000
  H   H7        1.0  0.22407  0.59788  0.30918  1.0000
  H   H8        1.0  0.22407  0.40212  0.69082  1.0000
  H   H9        1.0  0.30918  0.77593  0.40212  1.0000
  H   H10       1.0  0.69082  0.77593  0.59788  1.0000
  H   H11       1.0  0.30918  0.22407  0.59788  1.0000
  H   H12       1.0  0.69082  0.22407  0.40212  1.0000
  H   H13       1.0  0.47979  0.30573  0.77513  1.0000
  H   H14       1.0  0.52021  0.69427  0.77513  1.0000
  H   H15       1.0  0.52021  0.30573  0.22487  1.0000
  H   H16       1.0  0.47979  0.69427  0.22487  1.0000
  H   H17       1.0  0.77513  0.47979  0.30573  1.0000
  H   H18       1.0  0.77513  0.52021  0.69427  1.0000
  H   H19       1.0  0.22487  0.52021  0.30573  1.0000
  H   H20       1.0  0.22487  0.47979  0.69427  1.0000
  H   H21       1.0  0.30573  0.77513  0.47979  1.0000
  H   H22       1.0  0.69427  0.77513  0.52021  1.0000
  H   H23       1.0  0.30573  0.22487  0.52021  1.0000
  H   H24       1.0  0.69427  0.22487  0.47979  1.0000
  H   H25       1.0  0.47342  0.17344  0.74768  1.0000
  H   H26       1.0  0.52658  0.82656  0.74768  1.0000
  H   H27       1.0  0.52658  0.17344  0.25232  1.0000
  H   H28       1.0  0.47342  0.82656  0.25232  1.0000
  H   H29       1.0  0.74768  0.47342  0.17344  1.0000
  H   H30       1.0  0.74768  0.52658  0.82656  1.0000
  H   H31       1.0  0.25232  0.52658  0.17344  1.0000
  H   H32       1.0  0.25232  0.47342  0.82656  1.0000
  H   H33       1.0  0.17344  0.74768  0.47342  1.0000
  H   H34       1.0  0.82656  0.74768  0.52658  1.0000
  H   H35       1.0  0.17344  0.25232  0.52658  1.0000
  H   H36       1.0  0.82656  0.25232  0.47342  1.0000
  H   H37       1.0  0.39627  0.17704  0.74613  1.0000
  H   H38       1.0  0.60373  0.82296  0.74613  1.0000
  H   H39       1.0  0.60373  0.17704  0.25387  1.0000
  H   H40       1.0  0.39627  0.82296  0.25387  1.0000
  H   H41       1.0  0.74613  0.39627  0.17704  1.0000
  H   H42       1.0  0.74613  0.60373  0.82296  1.0000
  H   H43       1.0  0.25387  0.60373  0.17704  1.0000
  H   H44       1.0  0.25387  0.39627  0.82296  1.0000
  H   H45       1.0  0.17704  0.74613  0.39627  1.0000
  H   H46       1.0  0.82296  0.74613  0.60373  1.0000
  H   H47       1.0  0.17704  0.25387  0.60373  1.0000
  H   H48       1.0  0.82296  0.25387  0.39627  1.0000
  H   H49       1.0  0.53866  0.30084  0.74071  1.0000
  H   H50       1.0  0.46134  0.69916  0.74071  1.0000
  H   H51       1.0  0.46134  0.30084  0.25929  1.0000
  H   H52       1.0  0.53866  0.69916  0.25929  1.0000
  H   H53       1.0  0.74071  0.53866  0.30084  1.0000
  H   H54       1.0  0.74071  0.46134  0.69916  1.0000
  H   H55       1.0  0.25929  0.46134  0.30084  1.0000
  H   H56       1.0  0.25929  0.53866  0.69916  1.0000
  H   H57       1.0  0.30084  0.74071  0.53866  1.0000
  H   H58       1.0  0.69916  0.74071  0.46134  1.0000
  H   H59       1.0  0.30084  0.25929  0.46134  1.0000
  H   H60       1.0  0.69916  0.25929  0.53866  1.0000
  H   H61       1.0  0.61633  0.29667  0.74455  1.0000
  H   H62       1.0  0.38367  0.70333  0.74455  1.0000
  H   H63       1.0  0.38367  0.29667  0.25545  1.0000
  H   H64       1.0  0.61633  0.70333  0.25545  1.0000
  H   H65       1.0  0.74455  0.61633  0.29667  1.0000
  H   H66       1.0  0.74455  0.38367  0.70333  1.0000
  H   H67       1.0  0.25545  0.38367  0.29667  1.0000
  H   H68       1.0  0.25545  0.61633  0.70333  1.0000
  H   H69       1.0  0.29667  0.74455  0.61633  1.0000
  H   H70       1.0  0.70333  0.74455  0.38367  1.0000
  H   H71       1.0  0.29667  0.25545  0.38367  1.0000
  H   H72       1.0  0.70333  0.25545  0.61633  1.0000
  H   H73       1.0  0.60685  0.17053  0.79245  1.0000
  H   H74       1.0  0.39315  0.82947  0.79245  1.0000
  H   H75       1.0  0.39315  0.17053  0.20755  1.0000
  H   H76       1.0  0.60685  0.82947  0.20755  1.0000
  H   H77       1.0  0.79245  0.60685  0.17053  1.0000
  H   H78       1.0  0.79245  0.39315  0.82947  1.0000
  H   H79       1.0  0.20755  0.39315  0.17053  1.0000
  H   H80       1.0  0.20755  0.60685  0.82947  1.0000
  H   H81       1.0  0.17053  0.79245  0.60685  1.0000
  H   H82       1.0  0.82947  0.79245  0.39315  1.0000
  H   H83       1.0  0.17053  0.20755  0.39315  1.0000
  H   H84       1.0  0.82947  0.20755  0.60685  1.0000
  H   H85       1.0  0.53015  0.17347  0.78661  1.0000
  H   H86       1.0  0.46985  0.82653  0.78661  1.0000
  H   H87       1.0  0.46985  0.17347  0.21339  1.0000
  H   H88       1.0  0.53015  0.82653  0.21339  1.0000
  H   H89       1.0  0.78661  0.53015  0.17347  1.0000
  H   H90       1.0  0.78661  0.46985  0.82653  1.0000
  H   H91       1.0  0.21339  0.46985  0.17347  1.0000
  H   H92       1.0  0.21339  0.53015  0.82653  1.0000
  H   H93       1.0  0.17347  0.78661  0.53015  1.0000
  H   H94       1.0  0.82653  0.78661  0.46985  1.0000
  H   H95       1.0  0.17347  0.21339  0.46985  1.0000
  H   H96       1.0  0.82653  0.21339  0.53015  1.0000
  H   H97       1.0  0.93940  0.28867  0.77051  1.0000
  H   H98       1.0  0.06060  0.71133  0.77051  1.0000
  H   H99       1.0  0.06060  0.28867  0.22949  1.0000
  H   H100      1.0  0.93940  0.71133  0.22949  1.0000
  H   H101      1.0  0.77051  0.93940  0.28867  1.0000
  H   H102      1.0  0.77051  0.06060  0.71133  1.0000
  H   H103      1.0  0.22949  0.06060  0.28867  1.0000
  H   H104      1.0  0.22949  0.93940  0.71133  1.0000
  H   H105      1.0  0.28867  0.77051  0.93940  1.0000
  H   H106      1.0  0.71133  0.77051  0.06060  1.0000
  H   H107      1.0  0.28867  0.22949  0.06060  1.0000
  H   H108      1.0  0.71133  0.22949  0.93940  1.0000
  H   H109      1.0  0.00195  0.14563  0.76158  1.0000
  H   H110      1.0  0.99805  0.85437  0.76158  1.0000
  H   H111      1.0  0.99805  0.14563  0.23842  1.0000
  H   H112      1.0  0.00195  0.85437  0.23842  1.0000
  H   H113      1.0  0.76158  0.00195  0.14563  1.0000
  H   H114      1.0  0.76158  0.99805  0.85437  1.0000
  H   H115      1.0  0.23842  0.99805  0.14563  1.0000
  H   H116      1.0  0.23842  0.00195  0.85437  1.0000
  H   H117      1.0  0.14563  0.76158  0.00195  1.0000
  H   H118      1.0  0.85437  0.76158  0.99805  1.0000
  H   H119      1.0  0.14563  0.23842  0.99805  1.0000
  H   H120      1.0  0.85437  0.23842  0.00195  1.0000
  H   H121      1.0  0.92525  0.15394  0.76158  1.0000
  H   H122      1.0  0.07475  0.84606  0.76158  1.0000
  H   H123      1.0  0.07475  0.15394  0.23842  1.0000
  H   H124      1.0  0.92525  0.84606  0.23842  1.0000
  H   H125      1.0  0.76158  0.92525  0.15394  1.0000
  H   H126      1.0  0.76158  0.07475  0.84606  1.0000
  H   H127      1.0  0.23842  0.07475  0.15394  1.0000
  H   H128      1.0  0.23842  0.92525  0.84606  1.0000
  H   H129      1.0  0.15394  0.76158  0.92525  1.0000
  H   H130      1.0  0.84606  0.76158  0.07475  1.0000
  H   H131      1.0  0.15394  0.23842  0.07475  1.0000
  H   H132      1.0  0.84606  0.23842  0.92525  1.0000
  H   H133      1.0  0.00882  0.31857  0.76783  1.0000
  H   H134      1.0  0.99118  0.68143  0.76783  1.0000
  H   H135      1.0  0.99118  0.31857  0.23217  1.0000
  H   H136      1.0  0.00882  0.68143  0.23217  1.0000
  H   H137      1.0  0.76783  0.00882  0.31857  1.0000
  H   H138      1.0  0.76783  0.99118  0.68143  1.0000
  H   H139      1.0  0.23217  0.99118  0.31857  1.0000
  H   H140      1.0  0.23217  0.00882  0.68143  1.0000
  H   H141      1.0  0.31857  0.76783  0.00882  1.0000
  H   H142      1.0  0.68143  0.76783  0.99118  1.0000
  H   H143      1.0  0.31857  0.23217  0.99118  1.0000
  H   H144      1.0  0.68143  0.23217  0.00882  1.0000
  H   H145      1.0  0.08620  0.30988  0.76364  1.0000
  H   H146      1.0  0.91380  0.69012  0.76364  1.0000
  H   H147      1.0  0.91380  0.30988  0.23636  1.0000
  H   H148      1.0  0.08620  0.69012  0.23636  1.0000
  H   H149      1.0  0.76364  0.08620  0.30988  1.0000
  H   H150      1.0  0.76364  0.91380  0.69012  1.0000
  H   H151      1.0  0.23636  0.91380  0.30988  1.0000
  H   H152      1.0  0.23636  0.08620  0.69012  1.0000
  H   H153      1.0  0.30988  0.76364  0.08620  1.0000
  H   H154      1.0  0.69012  0.76364  0.91380  1.0000
  H   H155      1.0  0.30988  0.23636  0.91380  1.0000
  H   H156      1.0  0.69012  0.23636  0.08620  1.0000
  H   H157      1.0  0.07206  0.17560  0.76340  1.0000
  H   H158      1.0  0.92794  0.82440  0.76340  1.0000
  H   H159      1.0  0.92794  0.17560  0.23660  1.0000
  H   H160      1.0  0.07206  0.82440  0.23660  1.0000
  H   H161      1.0  0.76340  0.07206  0.17560  1.0000
  H   H162      1.0  0.76340  0.92794  0.82440  1.0000
  H   H163      1.0  0.23660  0.92794  0.17560  1.0000
  H   H164      1.0  0.23660  0.07206  0.82440  1.0000
  H   H165      1.0  0.17560  0.76340  0.07206  1.0000
  H   H166      1.0  0.82440  0.76340  0.92794  1.0000
  H   H167      1.0  0.17560  0.23660  0.92794  1.0000
  H   H168      1.0  0.82440  0.23660  0.07206  1.0000
  Zn  Zn25      1.0  0.20631  0.79369  0.20631  1.0000
  Zn  Zn26      1.0  0.79369  0.20631  0.20631  1.0000
  Zn  Zn27      1.0  0.79369  0.79369  0.79369  1.0000
  Zn  Zn28      1.0  0.20631  0.20631  0.79369  1.0000
  O   O97       1.0  0.23965  0.76035  0.23965  1.0000
  O   O98       1.0  0.76035  0.23965  0.23965  1.0000
  O   O99       1.0  0.76035  0.76035  0.76035  1.0000
  O   O100      1.0  0.23965  0.23965  0.76035  1.0000
  O   O101      1.0  0.77061  0.77061  0.22939  1.0000
  O   O102      1.0  0.22939  0.22939  0.22939  1.0000
  O   O103      1.0  0.22939  0.77061  0.77061  1.0000
  O   O104      1.0  0.77061  0.22939  0.77061  1.0000
  Zn  Zn29      1.0  0.26265  0.73735  0.73735  1.0000
  Zn  Zn30      1.0  0.73735  0.26265  0.73735  1.0000
  Zn  Zn31      1.0  0.73735  0.73735  0.26265  1.0000
  Zn  Zn32      1.0  0.26265  0.26265  0.26265  1.0000
